<?xml version="1.0" encoding="UTF-8"?>

<!-- generated on 2026-04-16T11:38:40.156271+07:00 by Eclipse SUMO netedit 1.26.0
-->

<routes xmlns:xsi="http://www.w3.org/2001/XMLSchema-instance" xsi:noNamespaceSchemaLocation="http://sumo.dlr.de/xsd/routes_file.xsd">
    <!-- VTypes -->
    <vType id="veh_passenger" vClass="passenger"/>
    <!-- Vehicles, persons and containers (sorted by depart) -->
    <trip id="veh1" type="veh_passenger" depart="0.51" departLane="best" departSpeed="max" from="703300034#0" to="607914725"/>
    <trip id="veh2" type="veh_passenger" depart="1.02" departLane="best" from="717641590#0" to="-516182069#1"/>
    <trip id="veh4" type="veh_passenger" depart="2.05" departLane="best" from="1173576242#0" to="327097633"/>
    <trip id="veh7" type="veh_passenger" depart="3.59" departLane="best" from="1173576242#1" to="511936249"/>
    <trip id="veh8" type="veh_passenger" depart="4.10" departLane="best" from="714476616" to="-1228007445"/>
    <trip id="veh9" type="veh_passenger" depart="4.61" departLane="best" from="714466494#1" to="612501705"/>
    <trip id="veh10" type="veh_passenger" depart="5.12" departLane="best" from="1267886090#0" to="1101469039#0"/>
    <trip id="veh12" type="veh_passenger" depart="6.15" departLane="best" from="-33285442#0" to="-609375943"/>
    <trip id="veh13" type="veh_passenger" depart="6.66" departLane="best" from="715893558" to="512505593"/>
    <trip id="veh14" type="veh_passenger" depart="7.17" departLane="best" from="714466495#1" to="705428416"/>
    <trip id="veh16" type="veh_passenger" depart="8.20" departLane="best" from="715509682#1" to="604424396#0"/>
    <trip id="veh17" type="veh_passenger" depart="8.71" departLane="best" from="612501709" to="-216959278#0"/>
    <trip id="veh18" type="veh_passenger" depart="9.22" departLane="best" from="1173577405#3" to="1267886080"/>
    <trip id="veh21" type="veh_passenger" depart="10.76" departLane="best" from="604424396#1" to="136737364#1"/>
    <trip id="veh23" type="veh_passenger" depart="11.78" departLane="best" from="1227951471" to="744570871"/>
    <trip id="veh24" type="veh_passenger" depart="12.29" departLane="best" from="1009093737" to="705428415"/>
    <trip id="veh25" type="veh_passenger" depart="12.81" departLane="best" departSpeed="max" from="-829561090" to="138346628"/>
    <trip id="veh27" type="veh_passenger" depart="13.83" departLane="best" from="327097634#2" to="609080154#0"/>
    <trip id="veh28" type="veh_passenger" depart="14.34" departLane="best" from="715875462#1" to="714466494#1"/>
    <trip id="veh29" type="veh_passenger" depart="14.86" departLane="best" from="1173577409#1" to="-1267886090#1"/>
    <trip id="veh30" type="veh_passenger" depart="15.37" departLane="best" from="1264367297" to="1264081505"/>
    <trip id="veh36" type="veh_passenger" depart="18.44" departLane="best" from="404679768#2" to="718926129"/>
    <trip id="veh39" type="veh_passenger" depart="19.98" departLane="best" from="-330800327" to="-223785631"/>
    <trip id="veh40" type="veh_passenger" depart="20.49" departLane="best" departSpeed="max" from="-505230879" to="604502170#0"/>
    <trip id="veh43" type="veh_passenger" depart="22.03" departLane="best" from="977793639#0" to="404402465"/>
    <trip id="veh45" type="veh_passenger" depart="23.05" departLane="best" from="-1259583512#1" to="703300035#2"/>
    <trip id="veh46" type="veh_passenger" depart="23.56" departLane="best" from="607624745" to="404679767"/>
    <trip id="veh48" type="veh_passenger" depart="24.59" departLane="best" departSpeed="max" from="-510517769" to="216955728"/>
    <trip id="veh50" type="veh_passenger" depart="25.61" departLane="best" from="717323839#0" to="1263992527#1"/>
    <trip id="veh51" type="veh_passenger" depart="26.13" departLane="best" from="228021173#0" to="1173576242#1"/>
    <trip id="veh52" type="veh_passenger" depart="26.64" departLane="best" from="718983870#0" to="717669811#0"/>
    <trip id="veh55" type="veh_passenger" depart="28.17" departLane="best" departSpeed="max" from="713810223#0" to="404679768#2"/>
    <trip id="veh59" type="veh_passenger" depart="30.22" departLane="best" from="717585242" to="715896733#2"/>
    <trip id="veh64" type="veh_passenger" depart="32.78" departLane="best" from="713958357#0" to="1009093738"/>
    <trip id="veh65" type="veh_passenger" depart="33.30" departLane="best" from="211232455#1-AddedOnRampEdge" to="411560759"/>
    <trip id="veh68" type="veh_passenger" depart="34.83" departLane="best" departSpeed="max" from="32579159#0" to="705428416"/>
    <trip id="veh69" type="veh_passenger" depart="35.35" departLane="best" from="1106862012" to="1276098368#0"/>
    <trip id="veh70" type="veh_passenger" depart="35.86" departLane="best" from="977793638#1" to="606227636#2"/>
    <trip id="veh71" type="veh_passenger" depart="36.37" departLane="best" from="138346622" to="330805103#0"/>
    <trip id="veh72" type="veh_passenger" depart="36.88" departLane="best" from="1267886081" to="511936248"/>
    <trip id="veh74" type="veh_passenger" depart="37.91" departLane="best" from="-290474918#0" to="604878802#0"/>
    <trip id="veh75" type="veh_passenger" depart="38.42" departLane="best" from="1173577409#1" to="719428897"/>
    <trip id="veh79" type="veh_passenger" depart="40.47" departLane="best" from="211232402" to="715448943#0"/>
    <trip id="veh80" type="veh_passenger" depart="40.98" departLane="best" from="714466495#2" to="1173578149#0"/>
    <trip id="veh81" type="veh_passenger" depart="41.49" departLane="best" from="136737364#0" to="256582322#0"/>
    <trip id="veh82" type="veh_passenger" depart="42.01" departLane="best" from="693079624#3" to="607624742#1"/>
    <trip id="veh85" type="veh_passenger" depart="43.54" departLane="best" from="136737358#1" to="1267006198#1"/>
    <trip id="veh86" type="veh_passenger" depart="44.05" departLane="best" from="1219999107" to="723276609"/>
    <trip id="veh87" type="veh_passenger" depart="44.57" departLane="best" from="1395875604" to="717602465"/>
    <trip id="veh89" type="veh_passenger" depart="45.59" departLane="best" from="977793639#1-AddedOffRampEdge" to="715905730#0"/>
    <trip id="veh90" type="veh_passenger" depart="46.10" departLane="best" from="211428243#3" to="1219999106"/>
    <trip id="veh91" type="veh_passenger" depart="46.62" departLane="best" from="1318066760" to="-32577314"/>
    <trip id="veh92" type="veh_passenger" depart="47.13" departLane="best" from="1299938877#0-AddedOffRampEdge" to="977793636"/>
    <trip id="veh96" type="veh_passenger" depart="49.18" departLane="best" from="327097634#1" to="703300034#2"/>
    <trip id="veh104" type="veh_passenger" depart="53.27" departLane="best" from="717610100" to="1259583512#0"/>
    <trip id="veh105" type="veh_passenger" depart="53.79" departLane="best" from="460336755" to="604424396#2"/>
    <trip id="veh108" type="veh_passenger" depart="55.32" departLane="best" from="1116129780#3" to="693085621"/>
    <trip id="veh109" type="veh_passenger" depart="55.84" departLane="best" from="1215211592" to="1465687521"/>
    <trip id="veh114" type="veh_passenger" depart="58.40" departLane="best" from="717585244#0" to="717755342#1"/>
    <trip id="veh115" type="veh_passenger" depart="58.91" departLane="best" departSpeed="max" from="1289303823" to="1101469040#1"/>
    <trip id="veh116" type="veh_passenger" depart="59.42" departLane="best" from="715581022" to="613280459"/>
    <trip id="veh118" type="veh_passenger" depart="60.45" departLane="best" from="605169162#1" to="-1254815480"/>
    <trip id="veh119" type="veh_passenger" depart="60.96" departLane="best" from="715448945#2-AddedOffRampEdge" to="1272139965"/>
    <trip id="veh122" type="veh_passenger" depart="62.50" departLane="best" from="1228549075#0" to="512505596"/>
    <trip id="veh123" type="veh_passenger" depart="63.01" departLane="best" departSpeed="max" from="638252689" to="1214983161"/>
    <trip id="veh124" type="veh_passenger" depart="63.52" departLane="best" from="599659466#3" to="1263992529"/>
    <trip id="veh125" type="veh_passenger" depart="64.03" departLane="best" from="215256457#0" to="719428897"/>
    <trip id="veh126" type="veh_passenger" depart="64.54" departLane="best" from="715883622" to="-606237430"/>
    <trip id="veh127" type="veh_passenger" depart="65.06" departLane="best" from="136737364#0" to="1266792727#0"/>
    <trip id="veh128" type="veh_passenger" depart="65.57" departLane="best" from="-1100893287" to="714465313#1"/>
    <trip id="veh129" type="veh_passenger" depart="66.08" departLane="best" from="703300035#6" to="43243988"/>
    <trip id="veh130" type="veh_passenger" depart="66.59" departLane="best" from="1376678930" to="-1254854272"/>
    <trip id="veh133" type="veh_passenger" depart="68.13" departLane="best" from="715581023" to="505230879"/>
    <trip id="veh134" type="veh_passenger" depart="68.64" departLane="best" departSpeed="max" from="-693078006" to="-962614434"/>
    <trip id="veh135" type="veh_passenger" depart="69.15" departLane="best" from="1263992527#1" to="718983870#0"/>
    <trip id="veh136" type="veh_passenger" depart="69.67" departLane="best" from="714465312#0" to="717602465"/>
    <trip id="veh138" type="veh_passenger" depart="70.69" departLane="best" from="1219999107" to="-612506942"/>
    <trip id="veh140" type="veh_passenger" depart="71.72" departLane="best" departSpeed="max" from="1320531899#0" to="604424397#0"/>
    <trip id="veh142" type="veh_passenger" depart="72.74" departLane="best" from="717181359" to="975991769#1"/>
    <trip id="veh143" type="veh_passenger" depart="73.25" departLane="best" from="714476617" to="717755342#3"/>
    <trip id="veh146" type="veh_passenger" depart="74.79" departLane="best" from="714465313#2" to="717610102"/>
    <trip id="veh149" type="veh_passenger" depart="76.33" departLane="best" from="717323836#0" to="717600763"/>
    <trip id="veh150" type="veh_passenger" depart="76.84" departLane="best" from="1173576242#3-AddedOffRampEdge" to="715875462#1"/>
    <trip id="veh151" type="veh_passenger" depart="77.35" departLane="best" from="714465312#0" to="1228007445"/>
    <trip id="veh152" type="veh_passenger" depart="77.86" departLane="best" from="-1265822534#1" to="1173578151#0"/>
    <trip id="veh153" type="veh_passenger" depart="78.38" departLane="best" from="1267006201#0" to="717610102"/>
    <trip id="veh154" type="veh_passenger" depart="78.89" departLane="best" from="604424399#2" to="1466572591"/>
    <trip id="veh155" type="veh_passenger" depart="79.40" departLane="best" from="975991769#2" to="404679181"/>
    <trip id="veh156" type="veh_passenger" depart="79.91" departLane="best" from="740114293" to="-694169767#1"/>
    <trip id="veh162" type="veh_passenger" depart="82.99" departLane="best" departSpeed="max" from="32579159#0" to="703300034#3"/>
    <trip id="veh163" type="veh_passenger" depart="83.50" departLane="best" from="703300035#8" to="607624736"/>
    <trip id="veh170" type="veh_passenger" depart="87.08" departLane="best" from="740114293" to="608194840#0"/>
    <trip id="veh171" type="veh_passenger" depart="87.60" departLane="best" from="717755342#1" to="58368129"/>
    <trip id="veh173" type="veh_passenger" depart="88.62" departLane="best" from="1376678932#0" to="504139804"/>
    <trip id="veh175" type="veh_passenger" depart="89.65" departLane="best" from="1390869178#1" to="1219999106"/>
    <trip id="veh176" type="veh_passenger" depart="90.16" departLane="best" from="211232455#0" to="718983871#4"/>
    <trip id="veh177" type="veh_passenger" depart="90.67" departLane="best" from="714465312#0" to="1149445533"/>
    <trip id="veh179" type="veh_passenger" depart="91.69" departLane="best" from="599649169#1" to="1305932540#1"/>
    <trip id="veh182" type="veh_passenger" depart="93.23" departLane="best" from="715896051#0" to="-330800325#1"/>
    <trip id="veh183" type="veh_passenger" depart="93.74" departLane="best" from="1335866187#2-AddedOffRampEdge" to="604865309"/>
    <trip id="veh184" type="veh_passenger" depart="94.26" departLane="best" from="1090659720" to="612501704#3"/>
    <trip id="veh185" type="veh_passenger" depart="94.77" departLane="best" from="216958448#2" to="1255211253"/>
    <trip id="veh186" type="veh_passenger" depart="95.28" departLane="best" from="705104368" to="714465313#0"/>
    <trip id="veh188" type="veh_passenger" depart="96.30" departLane="best" from="1009632603#0" to="901200852"/>
    <trip id="veh190" type="veh_passenger" depart="97.33" departLane="best" from="1219999107" to="717323836#4"/>
    <trip id="veh197" type="veh_passenger" depart="100.91" departLane="best" from="211232455#1-AddedOnRampEdge" to="1262916096"/>
    <trip id="veh198" type="veh_passenger" depart="101.43" departLane="best" from="1219999105" to="605169162#1"/>
    <trip id="veh199" type="veh_passenger" depart="101.94" departLane="best" from="713958357#0" to="33285456"/>
    <trip id="veh200" type="veh_passenger" depart="102.45" departLane="best" from="511936251" to="1266792723#1"/>
    <trip id="veh203" type="veh_passenger" depart="103.99" departLane="best" from="1173578149#0" to="612501704#3"/>
    <trip id="veh204" type="veh_passenger" depart="104.50" departLane="best" from="612501713#1" to="-32579159#0"/>
    <trip id="veh207" type="veh_passenger" depart="106.04" departLane="best" departSpeed="max" from="1344677946" to="719428897"/>
    <trip id="veh208" type="veh_passenger" depart="106.55" departLane="best" from="404679768#2" to="612501704#3"/>
    <trip id="veh209" type="veh_passenger" depart="107.06" departLane="best" from="715896733#2" to="714465312#0"/>
    <trip id="veh212" type="veh_passenger" depart="108.60" departLane="best" from="32584342" to="512505593"/>
    <trip id="veh214" type="veh_passenger" depart="109.62" departLane="best" from="138346621#0" to="-1267462146"/>
    <trip id="veh215" type="veh_passenger" depart="110.14" departLane="best" from="1267836604" to="608784055#0"/>
    <trip id="veh216" type="veh_passenger" depart="110.65" departLane="best" from="1318066763#3" to="1116129780#4"/>
    <trip id="veh217" type="veh_passenger" depart="111.16" departLane="best" from="169081600" to="1009093736"/>
    <trip id="veh223" type="veh_passenger" depart="114.23" departLane="best" from="1157624115" to="1299938877#1"/>
    <trip id="veh224" type="veh_passenger" depart="114.75" departLane="best" departSpeed="max" from="713810223#0" to="138346628"/>
    <trip id="veh225" type="veh_passenger" depart="115.26" departLane="best" from="705428414" to="715896733#2"/>
    <trip id="veh227" type="veh_passenger" depart="116.28" departLane="best" departSpeed="max" from="-1264081505" to="404679768#2"/>
    <trip id="veh228" type="veh_passenger" depart="116.79" departLane="best" from="977793639#1-AddedOffRampEdge" to="1318066763#3"/>
    <trip id="veh229" type="veh_passenger" depart="117.31" departLane="best" from="604884145#1" to="714476617"/>
    <trip id="veh231" type="veh_passenger" depart="118.33" departLane="best" departSpeed="max" from="-1264081505" to="1090659719#1"/>
    <trip id="veh232" type="veh_passenger" depart="118.84" departLane="best" departSpeed="max" from="-512505596" to="606870361"/>
    <trip id="veh234" type="veh_passenger" depart="119.87" departLane="best" from="612501703#1" to="714465312#0-AddedOnRampEdge"/>
    <trip id="veh235" type="veh_passenger" depart="120.38" departLane="best" from="705104366#0" to="-694169767#0"/>
    <trip id="veh238" type="veh_passenger" depart="121.92" departLane="best" from="1264081508" to="608194840#0"/>
    <trip id="veh239" type="veh_passenger" depart="122.43" departLane="best" from="808497694" to="1466572587"/>
    <trip id="veh240" type="veh_passenger" depart="122.94" departLane="best" from="614354352#0" to="-330805103#0"/>
    <trip id="veh241" type="veh_passenger" depart="123.45" departLane="best" departSpeed="max" from="609375987" to="604502170#0"/>
    <trip id="veh243" type="veh_passenger" depart="124.48" departLane="best" from="715896051#0" to="512505580"/>
    <trip id="veh244" type="veh_passenger" depart="124.99" departLane="best" departSpeed="max" from="-512505580" to="977793635"/>
    <trip id="veh248" type="veh_passenger" depart="127.04" departLane="best" from="604424396#1" to="715896733#0"/>
    <trip id="veh249" type="veh_passenger" depart="127.55" departLane="best" from="612501713#3" to="216955728"/>
    <trip id="veh251" type="veh_passenger" depart="128.58" departLane="best" from="1228007446#1" to="715581022"/>
    <trip id="veh254" type="veh_passenger" depart="130.11" departLane="best" from="1227951474" to="717585242"/>
    <trip id="veh255" type="veh_passenger" depart="130.63" departLane="best" from="715509682#1-AddedOffRampEdge" to="-516182069#0"/>
    <trip id="veh256" type="veh_passenger" depart="131.14" departLane="best" from="717596068" to="1255211252"/>
    <trip id="veh257" type="veh_passenger" depart="131.65" departLane="best" from="1484782305#1" to="520932894"/>
    <trip id="veh258" type="veh_passenger" depart="132.16" departLane="best" from="1299938877#0-AddedOffRampEdge" to="-1267462145"/>
    <trip id="veh259" type="veh_passenger" depart="132.67" departLane="best" from="715896052" to="1173576242#3-AddedOffRampEdge"/>
    <trip id="veh260" type="veh_passenger" depart="133.19" departLane="best" from="1157624115-AddedOffRampEdge" to="715509680#1-AddedOnRampEdge"/>
    <trip id="veh261" type="veh_passenger" depart="133.70" departLane="best" from="1267886090#0" to="717755342#2"/>
    <trip id="veh262" type="veh_passenger" depart="134.21" departLane="best" from="612501704#1" to="1266792727#0"/>
    <trip id="veh264" type="veh_passenger" depart="135.24" departLane="best" from="-32586700" to="703300035#0"/>
    <trip id="veh269" type="veh_passenger" depart="137.80" departLane="best" departSpeed="max" from="609375987" to="1276098362"/>
    <trip id="veh270" type="veh_passenger" depart="138.31" departLane="best" from="404679767" to="31096786"/>
    <trip id="veh271" type="veh_passenger" depart="138.82" departLane="best" from="32576041" to="211232455#1-AddedOnRampEdge"/>
    <trip id="veh273" type="veh_passenger" depart="139.85" departLane="best" from="612501705" to="1264081510"/>
    <trip id="veh275" type="veh_passenger" depart="140.87" departLane="best" from="1090659719#1" to="-717379343#2"/>
    <trip id="veh276" type="veh_passenger" depart="141.38" departLane="best" departSpeed="max" from="32577370#0" to="714069527"/>
    <trip id="veh280" type="veh_passenger" depart="143.43" departLane="best" from="1090659720" to="1227988736"/>
    <trip id="veh282" type="veh_passenger" depart="144.46" departLane="best" from="32577314" to="1266792723#1"/>
    <trip id="veh284" type="veh_passenger" depart="145.48" departLane="best" from="612501697#3" to="-882607485"/>
    <trip id="veh285" type="veh_passenger" depart="145.99" departLane="best" from="717274188" to="32584342"/>
    <trip id="veh286" type="veh_passenger" depart="146.51" departLane="best" from="717323836#2" to="476899238-AddedOnRampEdge"/>
    <trip id="veh289" type="veh_passenger" depart="148.04" departLane="best" from="715509680#0" to="1466572592"/>
    <trip id="veh291" type="veh_passenger" depart="149.07" departLane="best" from="330800330#0" to="1273751937"/>
    <trip id="veh292" type="veh_passenger" depart="149.58" departLane="best" from="977793638#0" to="-717247680#1"/>
    <trip id="veh296" type="veh_passenger" depart="151.63" departLane="best" from="977793636-AddedOffRampEdge" to="1276098362"/>
    <trip id="veh299" type="veh_passenger" depart="153.17" departLane="best" from="606227635#0" to="1101469040#1"/>
    <trip id="veh301" type="veh_passenger" depart="154.19" departLane="best" from="-1040166726" to="228021174#1"/>
    <trip id="veh302" type="veh_passenger" depart="154.70" departLane="best" from="43243988" to="1267886087#0"/>
    <trip id="veh303" type="veh_passenger" depart="155.21" departLane="best" from="1173578149#0" to="614354353#2"/>
    <trip id="veh304" type="veh_passenger" depart="155.73" departLane="best" from="612501705" to="231045738#4"/>
    <trip id="veh305" type="veh_passenger" depart="156.24" departLane="best" departSpeed="max" from="608826068" to="723276610#1"/>
    <trip id="veh306" type="veh_passenger" depart="156.75" departLane="best" from="714023488" to="604436575"/>
    <trip id="veh309" type="veh_passenger" depart="158.29" departLane="best" from="604878802#0" to="719439423"/>
    <trip id="veh310" type="veh_passenger" depart="158.80" departLane="best" from="715509681#0" to="-32586132"/>
    <trip id="veh311" type="veh_passenger" depart="159.31" departLane="best" from="-882607485" to="1276098364"/>
    <trip id="veh313" type="veh_passenger" depart="160.34" departLane="best" from="1255213549" to="-744570869#2"/>
    <trip id="veh314" type="veh_passenger" depart="160.85" departLane="best" from="608826069#0" to="612501708"/>
    <trip id="veh315" type="veh_passenger" depart="161.36" departLane="best" from="744570870" to="32588257"/>
    <trip id="veh316" type="veh_passenger" depart="161.87" departLane="best" from="216958448#0" to="-462954291"/>
    <trip id="veh317" type="veh_passenger" depart="162.39" departLane="best" departSpeed="max" from="-1419882702#1" to="213098163#0"/>
    <trip id="veh318" type="veh_passenger" depart="162.90" departLane="best" from="1266792723#1" to="1259586399#0"/>
    <trip id="veh320" type="veh_passenger" depart="163.92" departLane="best" from="715815286#0" to="476899239#0"/>
    <trip id="veh325" type="veh_passenger" depart="166.48" departLane="best" from="718983871#5" to="1173576242#3-AddedOffRampEdge"/>
    <trip id="veh326" type="veh_passenger" depart="167.00" departLane="best" from="404679768#3" to="605169160"/>
    <trip id="veh327" type="veh_passenger" depart="167.51" departLane="best" from="216958436#0" to="-604897371"/>
    <trip id="veh328" type="veh_passenger" depart="168.02" departLane="best" from="1272949178" to="1305932538"/>
    <trip id="veh332" type="veh_passenger" depart="170.07" departLane="best" from="715444129#0" to="411560759"/>
    <trip id="veh335" type="veh_passenger" depart="171.61" departLane="best" from="1318066763#2" to="330800325#1"/>
    <trip id="veh338" type="veh_passenger" depart="173.14" departLane="best" from="1019925661#2-AddedOnRampEdge" to="136737358#0"/>
    <trip id="veh340" type="veh_passenger" depart="174.17" departLane="best" departSpeed="max" from="713810223#0" to="1214983161"/>
    <trip id="veh342" type="veh_passenger" depart="175.19" departLane="best" from="138346622" to="612501705"/>
    <trip id="veh344" type="veh_passenger" depart="176.22" departLane="best" departSpeed="max" from="-719428897" to="428437965"/>
    <trip id="veh348" type="veh_passenger" depart="178.27" departLane="best" from="975991769#1" to="1255211252"/>
    <trip id="veh349" type="veh_passenger" depart="178.78" departLane="best" from="32588092#1" to="1395875605"/>
    <trip id="veh350" type="veh_passenger" depart="179.29" departLane="best" from="719439425" to="327097634#3"/>
    <trip id="veh351" type="veh_passenger" depart="179.80" departLane="best" from="717585242" to="717610102"/>
    <trip id="veh352" type="veh_passenger" depart="180.31" departLane="best" from="1231313481#1-AddedOnRampEdge" to="715462548#0"/>
    <trip id="veh353" type="veh_passenger" depart="180.83" departLane="best" from="1335866187#3" to="743179910#0"/>
    <trip id="veh354" type="veh_passenger" depart="181.34" departLane="best" from="234901532" to="715883622"/>
    <trip id="veh357" type="veh_passenger" depart="182.88" departLane="best" from="216955728" to="1040166727"/>
    <trip id="veh358" type="veh_passenger" depart="183.39" departLane="best" departSpeed="max" from="32579159#0" to="1318066756"/>
    <trip id="veh361" type="veh_passenger" depart="184.93" departLane="best" from="1019925661#3" to="612501704#3"/>
    <trip id="veh362" type="veh_passenger" depart="185.44" departLane="best" from="33285459#0" to="1228549075#0"/>
    <trip id="veh365" type="veh_passenger" depart="186.97" departLane="best" from="714507152#0" to="1419882702#1"/>
    <trip id="veh368" type="veh_passenger" depart="188.51" departLane="best" from="-1343389927" to="32643289"/>
    <trip id="veh370" type="veh_passenger" depart="189.54" departLane="best" from="717323836#4" to="216959278#1"/>
    <trip id="veh371" type="veh_passenger" depart="190.05" departLane="best" from="31096786" to="235914375#0"/>
    <trip id="veh373" type="veh_passenger" depart="191.07" departLane="best" from="605169162#2" to="1101469037"/>
    <trip id="veh374" type="veh_passenger" depart="191.58" departLane="best" from="1267886087#0" to="612501704#1"/>
    <trip id="veh375" type="veh_passenger" depart="192.10" departLane="best" from="604884145#1" to="717585242"/>
    <trip id="veh376" type="veh_passenger" depart="192.61" departLane="best" from="715896054#1" to="717600763-AddedOffRampEdge"/>
    <trip id="veh377" type="veh_passenger" depart="193.12" departLane="best" from="1299938877#1" to="1289022514#1"/>
    <trip id="veh383" type="veh_passenger" depart="196.19" departLane="best" from="610144170" to="718983872#0"/>
    <trip id="veh384" type="veh_passenger" depart="196.71" departLane="best" departSpeed="max" from="1259583511" to="1381049839#0"/>
    <trip id="veh386" type="veh_passenger" depart="197.73" departLane="best" from="330805100#2" to="715462548#1"/>
    <trip id="veh387" type="veh_passenger" depart="198.24" departLane="best" departSpeed="max" from="-901200852" to="-462954291"/>
    <trip id="veh388" type="veh_passenger" depart="198.76" departLane="best" from="717274191" to="604424396#3"/>
    <trip id="veh391" type="veh_passenger" depart="200.29" departLane="best" from="-1255211250" to="715509682#1-AddedOffRampEdge"/>
    <trip id="veh392" type="veh_passenger" depart="200.81" departLane="best" from="717755342#0" to="608194840#1"/>
    <trip id="veh393" type="veh_passenger" depart="201.32" departLane="best" departSpeed="max" from="-719428897" to="216959278#1"/>
    <trip id="veh395" type="veh_passenger" depart="202.34" departLane="best" from="1101469040#1" to="1419882702#0"/>
    <trip id="veh396" type="veh_passenger" depart="202.85" departLane="best" departSpeed="max" from="211428243#0" to="1231313481#1-AddedOnRampEdge"/>
    <trip id="veh397" type="veh_passenger" depart="203.37" departLane="best" from="33285459#0" to="476899238-AddedOnRampEdge"/>
    <trip id="veh398" type="veh_passenger" depart="203.88" departLane="best" from="977793637#2" to="1267886093#1"/>
    <trip id="veh400" type="veh_passenger" depart="204.90" departLane="best" from="1229642400" to="476899235#2"/>
    <trip id="veh403" type="veh_passenger" depart="206.44" departLane="best" from="1254854272" to="715509680#1-AddedOnRampEdge"/>
    <trip id="veh404" type="veh_passenger" depart="206.95" departLane="best" from="476899235#3" to="1329232863#1"/>
    <trip id="veh405" type="veh_passenger" depart="207.46" departLane="best" from="604424396#3" to="604424397#0"/>
    <trip id="veh406" type="veh_passenger" depart="207.98" departLane="best" from="607624737" to="703300035#2"/>
    <trip id="veh407" type="veh_passenger" depart="208.49" departLane="best" departSpeed="max" from="516182069#0" to="718983872#0"/>
    <trip id="veh408" type="veh_passenger" depart="209.00" departLane="best" from="604865309" to="1276098365#1"/>
    <trip id="veh412" type="veh_passenger" depart="211.05" departLane="best" from="715509682#1-AddedOffRampEdge" to="1262915162"/>
    <trip id="veh414" type="veh_passenger" depart="212.07" departLane="best" from="1267886087#0" to="-694169767#1"/>
    <trip id="veh415" type="veh_passenger" depart="212.59" departLane="best" from="962621273" to="717602465"/>
    <trip id="veh416" type="veh_passenger" depart="213.10" departLane="best" from="676199479#1" to="975991770"/>
    <trip id="veh417" type="veh_passenger" depart="213.61" departLane="best" from="1278431093" to="715462548#0"/>
    <trip id="veh418" type="veh_passenger" depart="214.12" departLane="best" from="-1262916093" to="404679181"/>
    <trip id="veh421" type="veh_passenger" depart="215.66" departLane="best" from="715509680#1" to="796228415#0"/>
    <trip id="veh422" type="veh_passenger" depart="216.17" departLane="best" departSpeed="max" from="-505230879" to="1228549237#0"/>
    <trip id="veh425" type="veh_passenger" depart="217.71" departLane="best" from="1173576242#3" to="-32579159#0"/>
    <trip id="veh426" type="veh_passenger" depart="218.22" departLane="best" from="715509680#1-AddedOnRampEdge" to="719439423"/>
    <trip id="veh433" type="veh_passenger" depart="221.81" departLane="best" from="703300035#8" to="1101469037"/>
    <trip id="veh434" type="veh_passenger" depart="222.32" departLane="best" from="1335866187#3" to="-609393106"/>
    <trip id="veh435" type="veh_passenger" depart="222.83" departLane="best" from="807018075#2" to="-1267886093#0"/>
    <trip id="veh436" type="veh_passenger" depart="223.34" departLane="best" from="807018075#2" to="717600760"/>
    <trip id="veh437" type="veh_passenger" depart="223.86" departLane="best" departSpeed="max" from="-456579958" to="610144170"/>
    <trip id="veh439" type="veh_passenger" depart="224.88" departLane="best" departSpeed="max" from="1276098365#0" to="1466572589"/>
    <trip id="veh440" type="veh_passenger" depart="225.39" departLane="best" from="1040166727" to="-719428898"/>
    <trip id="veh441" type="veh_passenger" depart="225.91" departLane="best" from="715893558" to="234901532"/>
    <trip id="veh447" type="veh_passenger" depart="228.98" departLane="best" from="1116129781#0" to="1219999107"/>
    <trip id="veh448" type="veh_passenger" depart="229.49" departLane="best" from="717274189" to="1299938877#2"/>
    <trip id="veh449" type="veh_passenger" depart="230.00" departLane="best" departSpeed="max" from="-693078006" to="718983871#2"/>
    <trip id="veh450" type="veh_passenger" depart="230.52" departLane="best" from="-1040166726" to="717600763"/>
    <trip id="veh451" type="veh_passenger" depart="231.03" departLane="best" from="-612506947" to="1009632599#0"/>