<?xml version="1.0" encoding="UTF-8"?>

<!-- generated on 2026-04-16T11:38:40.190868+07:00 by Eclipse SUMO netedit 1.26.0
-->

<additional xmlns:xsi="http://www.w3.org/2001/XMLSchema-instance" xsi:noNamespaceSchemaLocation="http://sumo.dlr.de/xsd/additional_file.xsd">
</additional>
